data_image0
_chemical_formula_structural       Ag55Au92
_chemical_formula_sum              "Ag55 Au92"
_cell_length_a       50
_cell_length_b       50
_cell_length_c       50
_cell_angle_alpha    90
_cell_angle_beta     90
_cell_angle_gamma    90

_space_group_name_H-M_alt    "P 1"
_space_group_IT_number       1

loop_
  _space_group_symop_operation_xyz
  'x, y, z'

loop_
  _atom_site_type_symbol
  _atom_site_label
  _atom_site_symmetry_multiplicity
  _atom_site_fract_x
  _atom_site_fract_y
  _atom_site_fract_z
  _atom_site_occupancy
  Ag  Ag1       1.0  0.28330  0.24680  0.27924  1.0000
  Ag  Ag2       1.0  0.29747  0.28549  0.31688  1.0000
  Ag  Ag3       1.0  0.32030  0.23448  0.31951  1.0000
  Ag  Ag4       1.0  0.26826  0.21114  0.31938  1.0000
  Ag  Ag5       1.0  0.24511  0.25942  0.32058  1.0000
  Ag  Ag6       1.0  0.29938  0.28104  0.23914  1.0000
  Ag  Ag7       1.0  0.31905  0.22693  0.23566  1.0000
  Ag  Ag8       1.0  0.26690  0.20844  0.23827  1.0000
  Ag  Ag9       1.0  0.24349  0.26109  0.23731  1.0000
  Ag  Ag10      1.0  0.33628  0.26618  0.27708  1.0000
  Ag  Ag11      1.0  0.30383  0.19456  0.27883  1.0000
  Ag  Ag12      1.0  0.22869  0.22367  0.27978  1.0000
  Ag  Ag13      1.0  0.25950  0.29890  0.27578  1.0000
  Ag  Ag14      1.0  0.31341  0.31889  0.35396  1.0000
  Ag  Ag15      1.0  0.35727  0.21647  0.35928  1.0000
  Ag  Ag16      1.0  0.25263  0.17592  0.36120  1.0000
  Ag  Ag17      1.0  0.20540  0.27750  0.35662  1.0000
  Ag  Ag18      1.0  0.31489  0.31837  0.19750  1.0000
  Ag  Ag19      1.0  0.35928  0.21372  0.19712  1.0000
  Ag  Ag20      1.0  0.25066  0.17151  0.19553  1.0000
  Ag  Ag21      1.0  0.20670  0.27351  0.19817  1.0000
  Ag  Ag22      1.0  0.38949  0.29368  0.27655  1.0000
  Ag  Ag23      1.0  0.32856  0.14644  0.27786  1.0000
  Ag  Ag24      1.0  0.17836  0.20021  0.28001  1.0000
  Ag  Ag25      1.0  0.23802  0.34896  0.27379  1.0000
  Ag  Ag26      1.0  0.33913  0.26964  0.36306  1.0000
  Ag  Ag27      1.0  0.35265  0.30563  0.31832  1.0000
  Ag  Ag28      1.0  0.37323  0.25394  0.31891  1.0000
  Ag  Ag29      1.0  0.30667  0.19650  0.36009  1.0000
  Ag  Ag30      1.0  0.34100  0.17612  0.32279  1.0000
  Ag  Ag31      1.0  0.28708  0.15340  0.32033  1.0000
  Ag  Ag32      1.0  0.23334  0.22858  0.36243  1.0000
  Ag  Ag33      1.0  0.21493  0.18679  0.32600  1.0000
  Ag  Ag34      1.0  0.19313  0.23804  0.31990  1.0000
  Ag  Ag35      1.0  0.25681  0.30010  0.35727  1.0000
  Ag  Ag36      1.0  0.27489  0.34060  0.31579  1.0000
  Ag  Ag37      1.0  0.22282  0.31250  0.31741  1.0000
  Ag  Ag38      1.0  0.33877  0.26680  0.19614  1.0000
  Ag  Ag39      1.0  0.35288  0.30635  0.23830  1.0000
  Ag  Ag40      1.0  0.37424  0.25016  0.23844  1.0000
  Ag  Ag41      1.0  0.30466  0.18943  0.19558  1.0000
  Ag  Ag42      1.0  0.34258  0.17633  0.23620  1.0000
  Ag  Ag43      1.0  0.28769  0.15154  0.23737  1.0000
  Ag  Ag44      1.0  0.23322  0.22429  0.19466  1.0000
  Ag  Ag45      1.0  0.21017  0.18466  0.23886  1.0000
  Ag  Ag46      1.0  0.18987  0.23557  0.23756  1.0000
  Ag  Ag47      1.0  0.26269  0.29494  0.19656  1.0000
  Ag  Ag48      1.0  0.27682  0.33246  0.23507  1.0000
  Ag  Ag49      1.0  0.22130  0.31342  0.23601  1.0000
  Ag  Ag50      1.0  0.28846  0.25080  0.36232  1.0000
  Ag  Ag51      1.0  0.28513  0.24470  0.19500  1.0000
  Ag  Ag52      1.0  0.31579  0.32045  0.27666  1.0000
  Ag  Ag53      1.0  0.25079  0.17009  0.27978  1.0000
  Ag  Ag54      1.0  0.20342  0.27694  0.27800  1.0000
  Ag  Ag55      1.0  0.36175  0.20867  0.28132  1.0000
  Au  Au1       1.0  0.32741  0.35664  0.39137  1.0000
  Au  Au2       1.0  0.38999  0.20214  0.39820  1.0000
  Au  Au3       1.0  0.23933  0.13866  0.39887  1.0000
  Au  Au4       1.0  0.17253  0.29048  0.39603  1.0000
  Au  Au5       1.0  0.32442  0.35074  0.15310  1.0000
  Au  Au6       1.0  0.39547  0.20176  0.15636  1.0000
  Au  Au7       1.0  0.23672  0.13253  0.16083  1.0000
  Au  Au8       1.0  0.16896  0.28920  0.15899  1.0000
  Au  Au9       1.0  0.43963  0.31128  0.27391  1.0000
  Au  Au10      1.0  0.34436  0.09336  0.27759  1.0000
  Au  Au11      1.0  0.12773  0.17769  0.27854  1.0000
  Au  Au12      1.0  0.21846  0.39830  0.27157  1.0000
  Au  Au13      1.0  0.35425  0.31058  0.39899  1.0000
  Au  Au14      1.0  0.36949  0.34512  0.35288  1.0000
  Au  Au15      1.0  0.41046  0.24128  0.35607  1.0000
  Au  Au16      1.0  0.37674  0.25570  0.40091  1.0000
  Au  Au17      1.0  0.41184  0.32873  0.31864  1.0000
  Au  Au18      1.0  0.42766  0.27459  0.31421  1.0000
  Au  Au19      1.0  0.34118  0.17745  0.39973  1.0000
  Au  Au20      1.0  0.38292  0.16328  0.35988  1.0000
  Au  Au21      1.0  0.27703  0.11891  0.36104  1.0000
  Au  Au22      1.0  0.29161  0.15819  0.40088  1.0000
  Au  Au23      1.0  0.36549  0.12689  0.32006  1.0000
  Au  Au24      1.0  0.30920  0.10124  0.31796  1.0000
  Au  Au25      1.0  0.21426  0.18925  0.39871  1.0000
  Au  Au26      1.0  0.19582  0.14878  0.36356  1.0000
  Au  Au27      1.0  0.15276  0.25530  0.35675  1.0000
  Au  Au28      1.0  0.19276  0.23867  0.39981  1.0000
  Au  Au29      1.0  0.16437  0.16216  0.32216  1.0000
  Au  Au30      1.0  0.14044  0.21383  0.32137  1.0000
  Au  Au31      1.0  0.27399  0.33987  0.39666  1.0000
  Au  Au32      1.0  0.29233  0.37412  0.35560  1.0000
  Au  Au33      1.0  0.18366  0.33369  0.35636  1.0000
  Au  Au34      1.0  0.22310  0.31862  0.39528  1.0000
  Au  Au35      1.0  0.25464  0.39208  0.31981  1.0000
  Au  Au36      1.0  0.20248  0.36791  0.31616  1.0000
  Au  Au37      1.0  0.35546  0.30703  0.15283  1.0000
  Au  Au38      1.0  0.36512  0.34364  0.19071  1.0000
  Au  Au39      1.0  0.41026  0.23386  0.19863  1.0000
  Au  Au40      1.0  0.37942  0.25421  0.15605  1.0000
  Au  Au41      1.0  0.40225  0.33379  0.23206  1.0000
  Au  Au42      1.0  0.42576  0.27300  0.23512  1.0000
  Au  Au43      1.0  0.34045  0.17770  0.15407  1.0000
  Au  Au44      1.0  0.37792  0.16134  0.19497  1.0000
  Au  Au45      1.0  0.27747  0.11601  0.19432  1.0000
  Au  Au46      1.0  0.28754  0.15502  0.15233  1.0000
  Au  Au47      1.0  0.36642  0.12619  0.23754  1.0000
  Au  Au48      1.0  0.31543  0.10111  0.23449  1.0000
  Au  Au49      1.0  0.21152  0.18682  0.15768  1.0000
  Au  Au50      1.0  0.19650  0.14658  0.19594  1.0000
  Au  Au51      1.0  0.15128  0.25117  0.19907  1.0000
  Au  Au52      1.0  0.18886  0.23598  0.15912  1.0000
  Au  Au53      1.0  0.15968  0.15791  0.23692  1.0000
  Au  Au54      1.0  0.13621  0.21337  0.23437  1.0000
  Au  Au55      1.0  0.27228  0.33014  0.15418  1.0000
  Au  Au56      1.0  0.29092  0.36933  0.19376  1.0000
  Au  Au57      1.0  0.18278  0.32775  0.19612  1.0000
  Au  Au58      1.0  0.22127  0.30956  0.15421  1.0000
  Au  Au59      1.0  0.25257  0.38575  0.23153  1.0000
  Au  Au60      1.0  0.20204  0.36523  0.22867  1.0000
  Au  Au61      1.0  0.29878  0.29030  0.40104  1.0000
  Au  Au62      1.0  0.24427  0.26493  0.40562  1.0000
  Au  Au63      1.0  0.32361  0.23323  0.40279  1.0000
  Au  Au64      1.0  0.27137  0.21531  0.40648  1.0000
  Au  Au65      1.0  0.30046  0.27867  0.15341  1.0000
  Au  Au66      1.0  0.24618  0.25692  0.15212  1.0000
  Au  Au67      1.0  0.32386  0.22907  0.15182  1.0000
  Au  Au68      1.0  0.27089  0.20636  0.14852  1.0000
  Au  Au69      1.0  0.33184  0.35907  0.24053  1.0000
  Au  Au70      1.0  0.29002  0.37665  0.27392  1.0000
  Au  Au71      1.0  0.37182  0.34674  0.28048  1.0000
  Au  Au72      1.0  0.32839  0.36130  0.31421  1.0000
  Au  Au73      1.0  0.23695  0.12801  0.23482  1.0000
  Au  Au74      1.0  0.19955  0.14428  0.27722  1.0000
  Au  Au75      1.0  0.27408  0.11349  0.27617  1.0000
  Au  Au76      1.0  0.23238  0.13228  0.32291  1.0000
  Au  Au77      1.0  0.18498  0.33093  0.27756  1.0000
  Au  Au78      1.0  0.16668  0.29472  0.23615  1.0000
  Au  Au79      1.0  0.16369  0.29416  0.31707  1.0000
  Au  Au80      1.0  0.15224  0.25356  0.27869  1.0000
  Au  Au81      1.0  0.41262  0.23620  0.27729  1.0000
  Au  Au82      1.0  0.39513  0.19333  0.23884  1.0000
  Au  Au83      1.0  0.40272  0.19972  0.31903  1.0000
  Au  Au84      1.0  0.38775  0.15677  0.28063  1.0000
  Au  Au85      1.0  0.39853  0.29807  0.36342  1.0000
  Au  Au86      1.0  0.33019  0.13781  0.36347  1.0000
  Au  Au87      1.0  0.17359  0.20181  0.36558  1.0000
  Au  Au88      1.0  0.23800  0.35845  0.35933  1.0000
  Au  Au89      1.0  0.39448  0.29226  0.19343  1.0000
  Au  Au90      1.0  0.32888  0.13587  0.19002  1.0000
  Au  Au91      1.0  0.17019  0.19618  0.19510  1.0000
  Au  Au92      1.0  0.23703  0.35375  0.18879  1.0000
